/*--------------------------------*- C++ -*----------------------------------*\
| =========                 |                                                 |
| \\      /  F ield         | OpenFOAM: The Open Source CFD Toolbox           |
|  \\    /   O peration     | Version:  v1906                                 |
|   \\  /    A nd           | Web:      www.OpenFOAM.com                      |
|    \\/     M anipulation  |                                                 |
\*---------------------------------------------------------------------------*/
FoamFile
{
    version     2.0;
    format      ascii;
    class       dictionary;
    object      blockMeshDict;
}
// * * * * * * * * * * * * * * * * * * * * * * * * * * * * * * * * * * * * * //

scale 1.0;

vertices
    (
        ( 0 0 0 )
        ( 5.502 0 0 )
        ( 5.502 3.416 0 )
        ( 0 3.416 0 )
        ( 0 0 0.007 )
        ( 5.502 0 0.007 )
        ( 5.502 3.416 0.007 )
        ( 0 3.416 0.007 )
    );

blocks
    (
    hex (0 1 2 3 4 5 6 7) (393 244 1) simpleGrading (1 1 1)
    );

edges
(
);

boundary
(  
    inlet
    {
        type patch;
        faces
        (
            (0 4 7 3)
        );
    }
    walls
    {
        type wall;
        faces
        (
            (0 1 5 4)
            (1 2 6 5)
            (3 7 6 2)
        );
    }
    updown
    {
        type empty;
        faces
        (
            (0 3 2 1)
            (4 5 6 7)
        );
    }
);

// ************************************************************************* //
