/*--------------------------------*- C++ -*----------------------------------*\
| =========                 |                                                 |
| \\      /  F ield         | OpenFOAM: The Open Source CFD Toolbox           |
|  \\    /   O peration     | Version:  v1906                                 |
|   \\  /    A nd           | Web:      www.OpenFOAM.com                      |
|    \\/     M anipulation  |                                                 |
\*---------------------------------------------------------------------------*/
FoamFile
{
    version     2.0;
    format      ascii;
    class       dictionary;
    object      snappyHexMeshDict;
}
// * * * * * * * * * * * * * * * * * * * * * * * * * * * * * * * * * * * * * //

castellatedMesh true;
snap true;
addLayers false;

geometry
{        
    cylinderIn.stl
    {
        type triSurfaceMesh;
        name cylinderIn;
    }
};

castellatedMeshControls
{
    maxLocalCells 100000;
    maxGlobalCells 2000000;
    minRefinementCells 0;
    maxLoadUnbalance 0.10;
    nCellsBetweenLevels 1;

    features
    (
        {
            file "cylinderIn.eMesh";
            level 0;
        }
    );

    refinementSurfaces
    {
        cylinderIn
        {
            regions
            {
            }
            level (0 0);
        }
    }

    resolveFeatureAngle 30;
    planarAngle 30;

    refinementRegions
    {
    }

    limitRegions
    {
    }

    locationInMesh (0 0 -0.05);

    allowFreeStandingZoneFaces true;

    faceZoneControls
    {
    }

    locationsOutsideMesh ((100 100 100));
}

snapControls
{
    nSmoothPatch 3;
    tolerance 2.0;
    nSolveIter 30;
    nRelaxIter 5;

    nFeatureSnapIter 10;
    implicitFeatureSnap false;
    explicitFeatureSnap true;
    multiRegionFeatureSnap false;
}

addLayersControls
{
    relativeSizes true;

    expansionRatio 1.0;
    finalLayerThickness 0.3;

    minThickness 0.1;

    layers
    {
    }

    nGrow 0;

    featureAngle 120;
    maxFaceThicknessRatio 0.5;

    nSmoothSurfaceNormals 1;
    nSmoothThickness 10;

    minMedialAxisAngle 90;
    maxThicknessToMedialRatio 0.3;
    nSmoothNormals 3;

    slipFeatureAngle 30;
    nRelaxIter 5;

    nBufferCellsNoExtrude 0;
    nLayerIter 50;
    nRelaxedIter 20;
}

meshQualityControls
{
    #include "meshQualityDict"

    relaxed
    {
        maxNonOrtho 75;
    }

    nSmoothScale 4;
    errorReduction 0.75;
}

mergeTolerance 1e-6;

// ************************************************************************* //
