/*--------------------------------*- C++ -*----------------------------------*\
| =========                 |                                                 |
| \\      /  F ield         | OpenFOAM: The Open Source CFD Toolbox           |
|  \\    /   O peration     | Version:  v2306                                 |
|   \\  /    A nd           | Website:  www.openfoam.com                      |
|    \\/     M anipulation  |                                                 |
\*---------------------------------------------------------------------------*/
FoamFile
{
    version     2.0;
    format      ascii;
    class       dictionary;
    object      blockMeshDict;
}
// * * * * * * * * * * * * * * * * * * * * * * * * * * * * * * * * * * * * * //

scale   1;

vertices
(
    (-1.3 -0.4 0.3)
    (-0.7 -0.4 0.3)
    (-0.7 0.4 0.3)
    (-1.3 0.4 0.3)
    (-1.3 -0.4 0.7)
    (-0.7 -0.4 0.7)
    (-0.7 0.4 0.7)
    (-1.3 0.4 0.7)
);

blocks
(
    hex (0 1 2 3 4 5 6 7) (30 40 20) simpleGrading (1 1 1)
);

edges
(
);

boundary
(
    FBWSide
    {
        type overset;
        faces
        (
            (0 4 7 3) 
            (0 3 2 1)
            (4 5 6 7)
            (2 6 5 1)  
            (1 5 4 0)        
            (3 7 6 2)
        );
    }
);

mergePatchPairs
(
);


// ************************************************************************* //
