/*---------------------------------------------------------------------------*\
| =========                 |                                                 |
| \\      /  F ield         | OpenFOAM: The Open Source CFD Toolbox           |
|  \\    /   O peration     | Version:  v2306                                 |
|   \\  /    A nd           | Website:  www.openfoam.com                      |
|    \\/     M anipulation  |                                                 |
\*---------------------------------------------------------------------------*/
FoamFile
{
    version     2.0;
    format      ascii;
    class       dictionary;
    object      waveProperties;
}
// * * * * * * * * * * * * * * * * * * * * * * * * * * * * * * * * * * * * * //


XMin
{
    alpha           alpha.water;

    waveModel       shallowWaterAbsorption;

    nPaddle         1;
}

XMax
{
    alpha           alpha.water;

    waveModel       shallowWaterAbsorption;

    nPaddle         1;
}

// ************************************************************************* //
