/*--------------------------------*- C++ -*----------------------------------*\
| =========                 |                                                 |
| \\      /  F ield         | OpenFOAM: The Open Source CFD Toolbox           |
|  \\    /   O peration     | Version:  v2306                                 |
|   \\  /    A nd           | Website:  www.openfoam.com                      |
|    \\/     M anipulation  |                                                 |
\*---------------------------------------------------------------------------*/
FoamFile
{
    version     2.0;
    format      ascii;
    class       dictionary;
    object      snappyHexMeshDict;
}
// * * * * * * * * * * * * * * * * * * * * * * * * * * * * * * * * * * * * * //

castellatedMesh on;
snap            on;
addLayers       off;

geometry
{    
    OBW1.stl
    {
        type triSurfaceMesh;
        name OBW1;
    }
    
    OBW2.stl
    {
        type triSurfaceMesh;
        name OBW2;
    }
}

castellatedMeshControls
{
    maxLocalCells 100000;

    maxGlobalCells 2000000;
    
    minRefinementCells 0;
    
    maxLoadUnbalance 0.10;
    
    nCellsBetweenLevels 1;
        
    resolveFeatureAngle 30;

    planarAngle 30;
    
    features
    (
        {
            file "OBW1.eMesh";
            level 0;
        }
        
        {
            file "OBW2.eMesh";
            level 0;
        }
    );
    
    allowFreeStandingZoneFaces true;

    refinementSurfaces
    {
        OBW1
        {
            level (0 0);
            faceZone OBW;
            cellZone OBW; 
            cellZoneInside inside;
        }
        
        OBW2
        {
            level (0 0);
            faceZone OBW;
            cellZone OBW;
            cellZoneInside inside;
        }
    }

    refinementRegions
    {
    }
    
    locationInMesh (1 0 0.2);
}

snapControls
{
    nSmoothPatch 3;
    tolerance 2.0;
    nSolveIter 30;
    nRelaxIter 5;
    nFeatureSnapIter 10;
    implicitFeatureSnap false;
    explicitFeatureSnap true;
    multiRegionFeatureSnap false;
}

addLayersControls
{
    relativeSizes true;
    expansionRatio 1.0;
    finalLayerThickness 0.3;
    minThickness 0.1;

    layers
    {
    }

    nGrow 0;

    featureAngle 120;
    maxFaceThicknessRatio 0.5;

    nSmoothSurfaceNormals 1;
    nSmoothThickness 10;

    minMedialAxisAngle 90;
    maxThicknessToMedialRatio 0.3;
    nSmoothNormals 3;
    slipFeatureAngle 30;
    nRelaxIter 5;

    nBufferCellsNoExtrude 0;
    nLayerIter 50;
    nRelaxedIter 20;
}

meshQualityControls
{
    #include "meshQualityDict"

    relaxed
    {
        maxNonOrtho 75;
    }

    nSmoothScale 4;
    errorReduction 0.75;
}

mergeTolerance 1e-6;

// ************************************************************************* //
