/*--------------------------------*- C++ -*----------------------------------*\
| =========                 |                                                 |
| \\      /  F ield         | OpenFOAM: The Open Source CFD Toolbox           |
|  \\    /   O peration     | Version:  2506                                  |
|   \\  /    A nd           | Website:  www.openfoam.com                      |
|    \\/     M anipulation  |                                                 |
\*---------------------------------------------------------------------------*/
FoamFile
{
    version     2.0;
    format      ascii;
    arch        "LSB;label=32;scalar=64";
    class       featureEdgeMesh;
    location    "constant/triSurface";
    object      cylinderIn.eMesh;
}
// * * * * * * * * * * * * * * * * * * * * * * * * * * * * * * * * * * * * * //


// points:

200
(
(0.045000002 -9.9920076e-18 -0.094000004)
(0.044911202 0.0028255733 -0.094000004)
(0.044911202 0.0028255733 -0.0059999991)
(0.045000002 9.9920076e-18 -0.0059999991)
(0.04464516 0.0056399954 -0.0059999991)
(0.04464516 0.0056399954 -0.094000004)
(0.044202924 0.0084321592 -0.0059999991)
(0.044202924 0.0084321592 -0.094000004)
(0.043586243 0.011191045 -0.0059999991)
(0.043586243 0.011191045 -0.094000004)
(0.042797543 0.013905765 -0.0059999991)
(0.042797543 0.013905765 -0.094000004)
(0.041839942 0.016565604 -0.0059999991)
(0.041839942 0.016565604 -0.094000004)
(0.040717218 0.019160068 -0.0059999991)
(0.040717218 0.019160068 -0.094000004)
(0.0394338 0.021678915 -0.0059999991)
(0.0394338 0.021678915 -0.094000004)
(0.037994757 0.024112206 -0.0059999991)
(0.037994757 0.024112206 -0.094000004)
(0.036405765 0.026450336 -0.0059999991)
(0.036405765 0.026450336 -0.094000004)
(0.034673098 0.02868408 -0.0059999991)
(0.034673098 0.02868408 -0.094000004)
(0.032803588 0.030804621 -0.0059999991)
(0.032803588 0.030804621 -0.094000004)
(0.030804621 0.032803588 -0.0059999991)
(0.030804621 0.032803588 -0.094000004)
(0.02868408 0.034673098 -0.0059999991)
(0.02868408 0.034673098 -0.094000004)
(0.026450336 0.036405765 -0.0059999991)
(0.026450336 0.036405765 -0.094000004)
(0.024112206 0.037994757 -0.0059999991)
(0.024112206 0.037994757 -0.094000004)
(0.021678915 0.0394338 -0.0059999991)
(0.021678915 0.0394338 -0.094000004)
(0.019160068 0.040717218 -0.0059999991)
(0.019160068 0.040717218 -0.094000004)
(0.016565604 0.041839942 -0.0059999991)
(0.016565604 0.041839942 -0.094000004)
(0.013905765 0.042797543 -0.0059999991)
(0.013905765 0.042797543 -0.094000004)
(0.011191045 0.043586243 -0.0059999991)
(0.011191045 0.043586243 -0.094000004)
(0.0084321592 0.044202924 -0.0059999991)
(0.0084321592 0.044202924 -0.094000004)
(0.0056399954 0.04464516 -0.0059999991)
(0.0056399954 0.04464516 -0.094000004)
(0.0028255733 0.044911202 -0.0059999991)
(0.0028255733 0.044911202 -0.094000004)
(-7.2365515e-18 0.045000002 -0.0059999991)
(-7.2365515e-18 0.045000002 -0.094000004)
(-0.0028255733 0.044911202 -0.0059999991)
(-0.0028255733 0.044911202 -0.094000004)
(-0.0056399954 0.04464516 -0.0059999991)
(-0.0056399954 0.04464516 -0.094000004)
(-0.0084321592 0.044202924 -0.0059999991)
(-0.0084321592 0.044202924 -0.094000004)
(-0.011191045 0.043586243 -0.0059999991)
(-0.011191045 0.043586243 -0.094000004)
(-0.013905765 0.042797543 -0.0059999991)
(-0.013905765 0.042797543 -0.094000004)
(-0.016565604 0.041839942 -0.0059999991)
(-0.016565604 0.041839942 -0.094000004)
(-0.019160068 0.040717218 -0.0059999991)
(-0.019160068 0.040717218 -0.094000004)
(-0.021678915 0.0394338 -0.0059999991)
(-0.021678915 0.0394338 -0.094000004)
(-0.024112206 0.037994757 -0.0059999991)
(-0.024112206 0.037994757 -0.094000004)
(-0.026450336 0.036405765 -0.0059999991)
(-0.026450336 0.036405765 -0.094000004)
(-0.02868408 0.034673098 -0.0059999991)
(-0.02868408 0.034673098 -0.094000004)
(-0.030804621 0.032803588 -0.0059999991)
(-0.030804621 0.032803588 -0.094000004)
(-0.032803588 0.030804621 -0.0059999991)
(-0.032803588 0.030804621 -0.094000004)
(-0.034673098 0.02868408 -0.0059999991)
(-0.034673098 0.02868408 -0.094000004)
(-0.036405765 0.026450336 -0.0059999991)
(-0.036405765 0.026450336 -0.094000004)
(-0.037994757 0.024112206 -0.0059999991)
(-0.037994757 0.024112206 -0.094000004)
(-0.0394338 0.021678915 -0.0059999991)
(-0.0394338 0.021678915 -0.094000004)
(-0.040717218 0.019160068 -0.0059999991)
(-0.040717218 0.019160068 -0.094000004)
(-0.041839942 0.016565604 -0.0059999991)
(-0.041839942 0.016565604 -0.094000004)
(-0.042797543 0.013905765 -0.0059999991)
(-0.042797543 0.013905765 -0.094000004)
(-0.043586243 0.011191045 -0.0059999991)
(-0.043586243 0.011191045 -0.094000004)
(-0.044202924 0.0084321592 -0.0059999991)
(-0.044202924 0.0084321592 -0.094000004)
(-0.04464516 0.0056399954 -0.0059999991)
(-0.04464516 0.0056399954 -0.094000004)
(-0.044911202 0.0028255733 -0.0059999991)
(-0.044911202 0.0028255733 -0.094000004)
(-0.045000002 -2.4465112e-17 -0.094000004)
(-0.045000002 -4.4810967e-18 -0.0059999991)
(-0.044911202 -0.0028255733 -0.0059999991)
(-0.044911202 -0.0028255733 -0.094000004)
(-0.04464516 -0.0056399954 -0.0059999991)
(-0.04464516 -0.0056399954 -0.094000004)
(-0.044202924 -0.0084321592 -0.0059999991)
(-0.044202924 -0.0084321592 -0.094000004)
(-0.043586243 -0.011191045 -0.0059999991)
(-0.043586243 -0.011191045 -0.094000004)
(-0.042797543 -0.013905765 -0.0059999991)
(-0.042797543 -0.013905765 -0.094000004)
(-0.041839942 -0.016565604 -0.0059999991)
(-0.041839942 -0.016565604 -0.094000004)
(-0.040717218 -0.019160068 -0.0059999991)
(-0.040717218 -0.019160068 -0.094000004)
(-0.0394338 -0.021678915 -0.0059999991)
(-0.0394338 -0.021678915 -0.094000004)
(-0.037994757 -0.024112206 -0.0059999991)
(-0.037994757 -0.024112206 -0.094000004)
(-0.036405765 -0.026450336 -0.0059999991)
(-0.036405765 -0.026450336 -0.094000004)
(-0.034673098 -0.02868408 -0.0059999991)
(-0.034673098 -0.02868408 -0.094000004)
(-0.032803588 -0.030804621 -0.0059999991)
(-0.032803588 -0.030804621 -0.094000004)
(-0.030804621 -0.032803588 -0.0059999991)
(-0.030804621 -0.032803588 -0.094000004)
(-0.02868408 -0.034673098 -0.0059999991)
(-0.02868408 -0.034673098 -0.094000004)
(-0.026450336 -0.036405765 -0.0059999991)
(-0.026450336 -0.036405765 -0.094000004)
(-0.024112206 -0.037994757 -0.0059999991)
(-0.024112206 -0.037994757 -0.094000004)
(-0.021678915 -0.0394338 -0.0059999991)
(-0.021678915 -0.0394338 -0.094000004)
(-0.019160068 -0.040717218 -0.0059999991)
(-0.019160068 -0.040717218 -0.094000004)
(-0.016565604 -0.041839942 -0.0059999991)
(-0.016565604 -0.041839942 -0.094000004)
(-0.013905765 -0.042797543 -0.0059999991)
(-0.013905765 -0.042797543 -0.094000004)
(-0.011191045 -0.043586243 -0.0059999991)
(-0.011191045 -0.043586243 -0.094000004)
(-0.0084321592 -0.044202924 -0.0059999991)
(-0.0084321592 -0.044202924 -0.094000004)
(-0.0056399954 -0.04464516 -0.0059999991)
(-0.0056399954 -0.04464516 -0.094000004)
(-0.0028255733 -0.044911202 -0.0059999991)
(-0.0028255733 -0.044911202 -0.094000004)
(-8.2663666e-18 -0.045000002 -0.0059999991)
(-8.2663666e-18 -0.045000002 -0.094000004)
(0.0028255733 -0.044911202 -0.0059999991)
(0.0028255733 -0.044911202 -0.094000004)
(0.0056399954 -0.04464516 -0.0059999991)
(0.0056399954 -0.04464516 -0.094000004)
(0.0084321592 -0.044202924 -0.0059999991)
(0.0084321592 -0.044202924 -0.094000004)
(0.011191045 -0.043586243 -0.0059999991)
(0.011191045 -0.043586243 -0.094000004)
(0.013905765 -0.042797543 -0.0059999991)
(0.013905765 -0.042797543 -0.094000004)
(0.016565604 -0.041839942 -0.0059999991)
(0.016565604 -0.041839942 -0.094000004)
(0.019160068 -0.040717218 -0.0059999991)
(0.019160068 -0.040717218 -0.094000004)
(0.021678915 -0.0394338 -0.0059999991)
(0.021678915 -0.0394338 -0.094000004)
(0.024112206 -0.037994757 -0.0059999991)
(0.024112206 -0.037994757 -0.094000004)
(0.026450336 -0.036405765 -0.0059999991)
(0.026450336 -0.036405765 -0.094000004)
(0.02868408 -0.034673098 -0.0059999991)
(0.02868408 -0.034673098 -0.094000004)
(0.030804621 -0.032803588 -0.0059999991)
(0.030804621 -0.032803588 -0.094000004)
(0.032803588 -0.030804621 -0.0059999991)
(0.032803588 -0.030804621 -0.094000004)
(0.034673098 -0.02868408 -0.0059999991)
(0.034673098 -0.02868408 -0.094000004)
(0.036405765 -0.026450336 -0.0059999991)
(0.036405765 -0.026450336 -0.094000004)
(0.037994757 -0.024112206 -0.0059999991)
(0.037994757 -0.024112206 -0.094000004)
(0.0394338 -0.021678915 -0.0059999991)
(0.0394338 -0.021678915 -0.094000004)
(0.040717218 -0.019160068 -0.0059999991)
(0.040717218 -0.019160068 -0.094000004)
(0.041839942 -0.016565604 -0.0059999991)
(0.041839942 -0.016565604 -0.094000004)
(0.042797543 -0.013905765 -0.0059999991)
(0.042797543 -0.013905765 -0.094000004)
(0.043586243 -0.011191045 -0.0059999991)
(0.043586243 -0.011191045 -0.094000004)
(0.044202924 -0.0084321592 -0.0059999991)
(0.044202924 -0.0084321592 -0.094000004)
(0.04464516 -0.0056399954 -0.0059999991)
(0.04464516 -0.0056399954 -0.094000004)
(0.044911202 -0.0028255733 -0.0059999991)
(0.044911202 -0.0028255733 -0.094000004)
)


// edges:

200
(
(0 1)
(2 3)
(4 2)
(1 5)
(6 4)
(5 7)
(8 6)
(7 9)
(10 8)
(9 11)
(12 10)
(11 13)
(14 12)
(13 15)
(16 14)
(15 17)
(18 16)
(17 19)
(20 18)
(19 21)
(22 20)
(21 23)
(24 22)
(23 25)
(26 24)
(25 27)
(28 26)
(27 29)
(30 28)
(29 31)
(32 30)
(31 33)
(34 32)
(33 35)
(36 34)
(35 37)
(38 36)
(37 39)
(40 38)
(39 41)
(42 40)
(41 43)
(44 42)
(43 45)
(46 44)
(45 47)
(48 46)
(47 49)
(50 48)
(49 51)
(52 50)
(51 53)
(54 52)
(53 55)
(56 54)
(55 57)
(58 56)
(57 59)
(60 58)
(59 61)
(62 60)
(61 63)
(64 62)
(63 65)
(66 64)
(65 67)
(68 66)
(67 69)
(70 68)
(69 71)
(72 70)
(71 73)
(74 72)
(73 75)
(76 74)
(75 77)
(78 76)
(77 79)
(80 78)
(79 81)
(82 80)
(81 83)
(84 82)
(83 85)
(86 84)
(85 87)
(88 86)
(87 89)
(90 88)
(89 91)
(92 90)
(91 93)
(94 92)
(93 95)
(96 94)
(95 97)
(98 96)
(97 99)
(99 100)
(101 98)
(102 101)
(100 103)
(104 102)
(103 105)
(106 104)
(105 107)
(108 106)
(107 109)
(110 108)
(109 111)
(112 110)
(111 113)
(114 112)
(113 115)
(116 114)
(115 117)
(118 116)
(117 119)
(120 118)
(119 121)
(122 120)
(121 123)
(124 122)
(123 125)
(126 124)
(125 127)
(128 126)
(127 129)
(130 128)
(129 131)
(132 130)
(131 133)
(134 132)
(133 135)
(136 134)
(135 137)
(138 136)
(137 139)
(140 138)
(139 141)
(142 140)
(141 143)
(144 142)
(143 145)
(146 144)
(145 147)
(148 146)
(147 149)
(150 148)
(149 151)
(152 150)
(151 153)
(154 152)
(153 155)
(156 154)
(155 157)
(158 156)
(157 159)
(160 158)
(159 161)
(162 160)
(161 163)
(164 162)
(163 165)
(166 164)
(165 167)
(168 166)
(167 169)
(170 168)
(169 171)
(172 170)
(171 173)
(174 172)
(173 175)
(176 174)
(175 177)
(178 176)
(177 179)
(180 178)
(179 181)
(182 180)
(181 183)
(184 182)
(183 185)
(186 184)
(185 187)
(188 186)
(187 189)
(190 188)
(189 191)
(192 190)
(191 193)
(194 192)
(193 195)
(196 194)
(195 197)
(198 196)
(197 199)
(3 198)
(199 0)
)

// * * * * * * * * * * * * * * * * * * * * * * * * * * * * * * * * * * * * * //


// ************************************************************************* //
