/*--------------------------------*- C++ -*----------------------------------*\
| =========                 |                                                 |
| \\      /  F ield         | OpenFOAM: The Open Source CFD Toolbox           |
|  \\    /   O peration     | Version:  2506                                  |
|   \\  /    A nd           | Website:  www.openfoam.com                      |
|    \\/     M anipulation  |                                                 |
\*---------------------------------------------------------------------------*/
FoamFile
{
    version     2.0;
    format      ascii;
    arch        "LSB;label=32;scalar=64";
    class       featureEdgeMesh;
    location    "constant/triSurface";
    object      cylinder.eMesh;
}
// * * * * * * * * * * * * * * * * * * * * * * * * * * * * * * * * * * * * * //


// points:

200
(
(0.050000001 -1.110223e-17 -0.1)
(0.049901336 0.0031395259 -0.1)
(0.049901336 0.0031395259 7.4505807e-10)
(0.050000001 1.110223e-17 7.4505807e-10)
(0.049605735 0.0062666615 7.4505807e-10)
(0.049605735 0.0062666615 -0.1)
(0.049114361 0.009369066 7.4505807e-10)
(0.049114361 0.009369066 -0.1)
(0.048429158 0.012434495 7.4505807e-10)
(0.048429158 0.012434495 -0.1)
(0.047552824 0.01545085 7.4505807e-10)
(0.047552824 0.01545085 -0.1)
(0.046488825 0.018406227 7.4505807e-10)
(0.046488825 0.018406227 -0.1)
(0.045241352 0.021288965 7.4505807e-10)
(0.045241352 0.021288965 -0.1)
(0.043815333 0.024087684 7.4505807e-10)
(0.043815333 0.024087684 -0.1)
(0.042216398 0.02679134 7.4505807e-10)
(0.042216398 0.02679134 -0.1)
(0.040450849 0.029389262 7.4505807e-10)
(0.040450849 0.029389262 -0.1)
(0.038525663 0.0318712 7.4505807e-10)
(0.038525663 0.0318712 -0.1)
(0.03644843 0.034227356 7.4505807e-10)
(0.03644843 0.034227356 -0.1)
(0.034227356 0.03644843 7.4505807e-10)
(0.034227356 0.03644843 -0.1)
(0.0318712 0.038525663 7.4505807e-10)
(0.0318712 0.038525663 -0.1)
(0.029389262 0.040450849 7.4505807e-10)
(0.029389262 0.040450849 -0.1)
(0.02679134 0.042216398 7.4505807e-10)
(0.02679134 0.042216398 -0.1)
(0.024087684 0.043815333 7.4505807e-10)
(0.024087684 0.043815333 -0.1)
(0.021288965 0.045241352 7.4505807e-10)
(0.021288965 0.045241352 -0.1)
(0.018406227 0.046488825 7.4505807e-10)
(0.018406227 0.046488825 -0.1)
(0.01545085 0.047552824 7.4505807e-10)
(0.01545085 0.047552824 -0.1)
(0.012434495 0.048429158 7.4505807e-10)
(0.012434495 0.048429158 -0.1)
(0.009369066 0.049114361 7.4505807e-10)
(0.009369066 0.049114361 -0.1)
(0.0062666615 0.049605735 7.4505807e-10)
(0.0062666615 0.049605735 -0.1)
(0.0031395259 0.049901336 7.4505807e-10)
(0.0031395259 0.049901336 -0.1)
(-8.0406133e-18 0.050000001 7.4505807e-10)
(-8.0406133e-18 0.050000001 -0.1)
(-0.0031395259 0.049901336 7.4505807e-10)
(-0.0031395259 0.049901336 -0.1)
(-0.0062666615 0.049605735 7.4505807e-10)
(-0.0062666615 0.049605735 -0.1)
(-0.009369066 0.049114361 7.4505807e-10)
(-0.009369066 0.049114361 -0.1)
(-0.012434495 0.048429158 7.4505807e-10)
(-0.012434495 0.048429158 -0.1)
(-0.01545085 0.047552824 7.4505807e-10)
(-0.01545085 0.047552824 -0.1)
(-0.018406227 0.046488825 7.4505807e-10)
(-0.018406227 0.046488825 -0.1)
(-0.021288965 0.045241352 7.4505807e-10)
(-0.021288965 0.045241352 -0.1)
(-0.024087684 0.043815333 7.4505807e-10)
(-0.024087684 0.043815333 -0.1)
(-0.02679134 0.042216398 7.4505807e-10)
(-0.02679134 0.042216398 -0.1)
(-0.029389262 0.040450849 7.4505807e-10)
(-0.029389262 0.040450849 -0.1)
(-0.0318712 0.038525663 7.4505807e-10)
(-0.0318712 0.038525663 -0.1)
(-0.034227356 0.03644843 7.4505807e-10)
(-0.034227356 0.03644843 -0.1)
(-0.03644843 0.034227356 7.4505807e-10)
(-0.03644843 0.034227356 -0.1)
(-0.038525663 0.0318712 7.4505807e-10)
(-0.038525663 0.0318712 -0.1)
(-0.040450849 0.029389262 7.4505807e-10)
(-0.040450849 0.029389262 -0.1)
(-0.042216398 0.02679134 7.4505807e-10)
(-0.042216398 0.02679134 -0.1)
(-0.043815333 0.024087684 7.4505807e-10)
(-0.043815333 0.024087684 -0.1)
(-0.045241352 0.021288965 7.4505807e-10)
(-0.045241352 0.021288965 -0.1)
(-0.046488825 0.018406227 7.4505807e-10)
(-0.046488825 0.018406227 -0.1)
(-0.047552824 0.01545085 7.4505807e-10)
(-0.047552824 0.01545085 -0.1)
(-0.048429158 0.012434495 7.4505807e-10)
(-0.048429158 0.012434495 -0.1)
(-0.049114361 0.009369066 7.4505807e-10)
(-0.049114361 0.009369066 -0.1)
(-0.049605735 0.0062666615 7.4505807e-10)
(-0.049605735 0.0062666615 -0.1)
(-0.049901336 0.0031395259 7.4505807e-10)
(-0.049901336 0.0031395259 -0.1)
(-0.050000001 -2.7183458e-17 -0.1)
(-0.050000001 -4.9789961e-18 7.4505807e-10)
(-0.049901336 -0.0031395259 7.4505807e-10)
(-0.049901336 -0.0031395259 -0.1)
(-0.049605735 -0.0062666615 7.4505807e-10)
(-0.049605735 -0.0062666615 -0.1)
(-0.049114361 -0.009369066 7.4505807e-10)
(-0.049114361 -0.009369066 -0.1)
(-0.048429158 -0.012434495 7.4505807e-10)
(-0.048429158 -0.012434495 -0.1)
(-0.047552824 -0.01545085 7.4505807e-10)
(-0.047552824 -0.01545085 -0.1)
(-0.046488825 -0.018406227 7.4505807e-10)
(-0.046488825 -0.018406227 -0.1)
(-0.045241352 -0.021288965 7.4505807e-10)
(-0.045241352 -0.021288965 -0.1)
(-0.043815333 -0.024087684 7.4505807e-10)
(-0.043815333 -0.024087684 -0.1)
(-0.042216398 -0.02679134 7.4505807e-10)
(-0.042216398 -0.02679134 -0.1)
(-0.040450849 -0.029389262 7.4505807e-10)
(-0.040450849 -0.029389262 -0.1)
(-0.038525663 -0.0318712 7.4505807e-10)
(-0.038525663 -0.0318712 -0.1)
(-0.03644843 -0.034227356 7.4505807e-10)
(-0.03644843 -0.034227356 -0.1)
(-0.034227356 -0.03644843 7.4505807e-10)
(-0.034227356 -0.03644843 -0.1)
(-0.0318712 -0.038525663 7.4505807e-10)
(-0.0318712 -0.038525663 -0.1)
(-0.029389262 -0.040450849 7.4505807e-10)
(-0.029389262 -0.040450849 -0.1)
(-0.02679134 -0.042216398 7.4505807e-10)
(-0.02679134 -0.042216398 -0.1)
(-0.024087684 -0.043815333 7.4505807e-10)
(-0.024087684 -0.043815333 -0.1)
(-0.021288965 -0.045241352 7.4505807e-10)
(-0.021288965 -0.045241352 -0.1)
(-0.018406227 -0.046488825 7.4505807e-10)
(-0.018406227 -0.046488825 -0.1)
(-0.01545085 -0.047552824 7.4505807e-10)
(-0.01545085 -0.047552824 -0.1)
(-0.012434495 -0.048429158 7.4505807e-10)
(-0.012434495 -0.048429158 -0.1)
(-0.009369066 -0.049114361 7.4505807e-10)
(-0.009369066 -0.049114361 -0.1)
(-0.0062666615 -0.049605735 7.4505807e-10)
(-0.0062666615 -0.049605735 -0.1)
(-0.0031395259 -0.049901336 7.4505807e-10)
(-0.0031395259 -0.049901336 -0.1)
(-9.1848514e-18 -0.050000001 7.4505807e-10)
(-9.1848514e-18 -0.050000001 -0.1)
(0.0031395259 -0.049901336 7.4505807e-10)
(0.0031395259 -0.049901336 -0.1)
(0.0062666615 -0.049605735 7.4505807e-10)
(0.0062666615 -0.049605735 -0.1)
(0.009369066 -0.049114361 7.4505807e-10)
(0.009369066 -0.049114361 -0.1)
(0.012434495 -0.048429158 7.4505807e-10)
(0.012434495 -0.048429158 -0.1)
(0.01545085 -0.047552824 7.4505807e-10)
(0.01545085 -0.047552824 -0.1)
(0.018406227 -0.046488825 7.4505807e-10)
(0.018406227 -0.046488825 -0.1)
(0.021288965 -0.045241352 7.4505807e-10)
(0.021288965 -0.045241352 -0.1)
(0.024087684 -0.043815333 7.4505807e-10)
(0.024087684 -0.043815333 -0.1)
(0.02679134 -0.042216398 7.4505807e-10)
(0.02679134 -0.042216398 -0.1)
(0.029389262 -0.040450849 7.4505807e-10)
(0.029389262 -0.040450849 -0.1)
(0.0318712 -0.038525663 7.4505807e-10)
(0.0318712 -0.038525663 -0.1)
(0.034227356 -0.03644843 7.4505807e-10)
(0.034227356 -0.03644843 -0.1)
(0.03644843 -0.034227356 7.4505807e-10)
(0.03644843 -0.034227356 -0.1)
(0.038525663 -0.0318712 7.4505807e-10)
(0.038525663 -0.0318712 -0.1)
(0.040450849 -0.029389262 7.4505807e-10)
(0.040450849 -0.029389262 -0.1)
(0.042216398 -0.02679134 7.4505807e-10)
(0.042216398 -0.02679134 -0.1)
(0.043815333 -0.024087684 7.4505807e-10)
(0.043815333 -0.024087684 -0.1)
(0.045241352 -0.021288965 7.4505807e-10)
(0.045241352 -0.021288965 -0.1)
(0.046488825 -0.018406227 7.4505807e-10)
(0.046488825 -0.018406227 -0.1)
(0.047552824 -0.01545085 7.4505807e-10)
(0.047552824 -0.01545085 -0.1)
(0.048429158 -0.012434495 7.4505807e-10)
(0.048429158 -0.012434495 -0.1)
(0.049114361 -0.009369066 7.4505807e-10)
(0.049114361 -0.009369066 -0.1)
(0.049605735 -0.0062666615 7.4505807e-10)
(0.049605735 -0.0062666615 -0.1)
(0.049901336 -0.0031395259 7.4505807e-10)
(0.049901336 -0.0031395259 -0.1)
)


// edges:

200
(
(0 1)
(2 3)
(4 2)
(1 5)
(6 4)
(5 7)
(8 6)
(7 9)
(10 8)
(9 11)
(12 10)
(11 13)
(14 12)
(13 15)
(16 14)
(15 17)
(18 16)
(17 19)
(20 18)
(19 21)
(22 20)
(21 23)
(24 22)
(23 25)
(26 24)
(25 27)
(28 26)
(27 29)
(30 28)
(29 31)
(32 30)
(31 33)
(34 32)
(33 35)
(36 34)
(35 37)
(38 36)
(37 39)
(40 38)
(39 41)
(42 40)
(41 43)
(44 42)
(43 45)
(46 44)
(45 47)
(48 46)
(47 49)
(50 48)
(49 51)
(52 50)
(51 53)
(54 52)
(53 55)
(56 54)
(55 57)
(58 56)
(57 59)
(60 58)
(59 61)
(62 60)
(61 63)
(64 62)
(63 65)
(66 64)
(65 67)
(68 66)
(67 69)
(70 68)
(69 71)
(72 70)
(71 73)
(74 72)
(73 75)
(76 74)
(75 77)
(78 76)
(77 79)
(80 78)
(79 81)
(82 80)
(81 83)
(84 82)
(83 85)
(86 84)
(85 87)
(88 86)
(87 89)
(90 88)
(89 91)
(92 90)
(91 93)
(94 92)
(93 95)
(96 94)
(95 97)
(98 96)
(97 99)
(99 100)
(101 98)
(102 101)
(100 103)
(104 102)
(103 105)
(106 104)
(105 107)
(108 106)
(107 109)
(110 108)
(109 111)
(112 110)
(111 113)
(114 112)
(113 115)
(116 114)
(115 117)
(118 116)
(117 119)
(120 118)
(119 121)
(122 120)
(121 123)
(124 122)
(123 125)
(126 124)
(125 127)
(128 126)
(127 129)
(130 128)
(129 131)
(132 130)
(131 133)
(134 132)
(133 135)
(136 134)
(135 137)
(138 136)
(137 139)
(140 138)
(139 141)
(142 140)
(141 143)
(144 142)
(143 145)
(146 144)
(145 147)
(148 146)
(147 149)
(150 148)
(149 151)
(152 150)
(151 153)
(154 152)
(153 155)
(156 154)
(155 157)
(158 156)
(157 159)
(160 158)
(159 161)
(162 160)
(161 163)
(164 162)
(163 165)
(166 164)
(165 167)
(168 166)
(167 169)
(170 168)
(169 171)
(172 170)
(171 173)
(174 172)
(173 175)
(176 174)
(175 177)
(178 176)
(177 179)
(180 178)
(179 181)
(182 180)
(181 183)
(184 182)
(183 185)
(186 184)
(185 187)
(188 186)
(187 189)
(190 188)
(189 191)
(192 190)
(191 193)
(194 192)
(193 195)
(196 194)
(195 197)
(198 196)
(197 199)
(3 198)
(199 0)
)

// * * * * * * * * * * * * * * * * * * * * * * * * * * * * * * * * * * * * * //


// ************************************************************************* //
